Metadata-Version: 2.1
Name: gemseo-fmu
Version: 2.0.0
Summary: GEMSEO plugin for FMU dynamic models.
Author-email: GEMSEO team <contact@gemseo.org>
License: GNU Lesser General Public License v3
Project-URL: Homepage, https://gitlab.com/gemseo
Project-URL: Source, https://gitlab.com/gemseo/dev/gemseo-fmu
Project-URL: Tracker, https://gitlab.com/gemseo/dev/gemseo-fmu/-/issues
Classifier: License :: OSI Approved :: GNU Lesser General Public License v3 (LGPLv3)
Classifier: Intended Audience :: Science/Research
Classifier: Topic :: Scientific/Engineering
Classifier: Operating System :: POSIX :: Linux
Classifier: Operating System :: MacOS
Classifier: Operating System :: Microsoft :: Windows
Classifier: Programming Language :: Python :: 3 :: Only
Classifier: Programming Language :: Python :: 3.9
Classifier: Programming Language :: Python :: 3.10
Classifier: Programming Language :: Python :: 3.11
Requires-Python: <3.12,>=3.9
Description-Content-Type: text/markdown
License-File: LICENSE.txt
License-File: CREDITS.md
Requires-Dist: gemseo[all] >=5
Requires-Dist: fmpy <=0.3.19,>=0.3.13
Requires-Dist: numpy
Provides-Extra: doc
Requires-Dist: black ; extra == 'doc'
Requires-Dist: mike ; extra == 'doc'
Requires-Dist: mkdocs-gallery ; extra == 'doc'
Requires-Dist: mkdocs-section-index ; extra == 'doc'
Requires-Dist: mkdocs-literate-nav ; extra == 'doc'
Requires-Dist: mkdocs-gen-files ; extra == 'doc'
Requires-Dist: mkdocstrings[python] <=1.7.3 ; extra == 'doc'
Requires-Dist: mkdocs-material ; extra == 'doc'
Requires-Dist: mkdocs-include-markdown-plugin ; extra == 'doc'
Requires-Dist: mkdocs-bibtex ; extra == 'doc'
Provides-Extra: test
Requires-Dist: covdefaults ; extra == 'test'
Requires-Dist: pytest ; extra == 'test'
Requires-Dist: pytest-cov ; extra == 'test'
Requires-Dist: pytest-xdist ; extra == 'test'

<!--
Copyright 2021 IRT Saint Exupéry, https://www.irt-saintexupery.com

This work is licensed under the Creative Commons Attribution-ShareAlike 4.0
International License. To view a copy of this license, visit
http://creativecommons.org/licenses/by-sa/4.0/ or send a letter to Creative
Commons, PO Box 1866, Mountain View, CA 94042, USA.
-->

GEMSEO-FMU is a [GEMSEO](https://gemseo.readthedocs.io) plugin for
loading, interacting, and simulating Functional Mockup Unit models
(FMUs). FMUs are widely used by the simulation community and can be
generated by over 170 tools such as Dymola, OpenModelica, CATIA, ANSYS,
LS-DYNA, or MATLAB (see the full list here
<https://www.fmi-standard.org/tools>).

GEMSEO-FMU enables the integration and exploitation of FMUs in a
Multidisciplinary Design Optimization (MDO) context, via GEMSEO. For
that, it wraps the FMU model into a GEMSEO discipline named
FMUDiscipline.

GEMSEO-FMU relies on the [FMPy](https://github.com/CATIA-Systems/FMPy)
library for loading the FMU models, setting the model parameters and
evaluating model equations. Model Exchange and Co-Simulation types as
well as versions 1.0, 2.0 and 3.0 of the FMI standard are supported by
FMPy, and so by GEMSEO-FMU.

# Generic examples

Many examples are available to illustrate the main features of
GEMSEO-FMU. See in the examples directory.

# Documentation

The documentation is not yet available.

# Bugs/Questions

Please use the gitlab issue tracker at
<https://gitlab.com/gemseo/dev/gemseo-fmu/-/issues>
to submit bugs or questions.

# License

The **gemseo-fmu** source code is distributed under the GNU LGPL v3.0 license.
A copy of it can be found in the LICENSE.txt file.
The GNU LGPL v3.0 license is an exception to the GNU GPL v3.0 license.
A copy of the GNU GPL v3.0 license can be found in the LICENSES folder.

The **gemseo-fmu** examples are distributed under the BSD 0-Clause, a permissive
license that allows to copy paste the code of examples without preserving the
copyright mentions.

The **gemseo-fmu** documentation is distributed under the CC BY-SA 4.0 license.

The **gemseo-fmu** product depends on other software which have various licenses.
The list of dependencies with their licenses is given in the CREDITS.md file.

# Contributors

- Jorge Camacho Casero
- François Gallard
- Antoine Dechaume
- Matthias De Lozzo
